10701851
  -OEChem-02292422592D

 15 15  0     0  0  0  0  0  0999 V2000
    2.0544    0.0479    0.0000 O   0  0  0  0  0  0  0  0  0  0  0  0
    4.5576   -0.9000    0.0000 N   0  0  0  0  0  0  0  0  0  0  0  0
    5.0576    0.6388    0.0000 N   0  0  0  0  0  0  0  0  0  0  0  0
    3.4699    1.4478    0.0000 N   1  0  0  0  0  0  0  0  0  0  0  0
    2.5896   -1.5994    0.0000 N   1  0  0  0  0  0  0  0  0  0  0  0
    3.7486   -0.3122    0.0000 C   0  0  0  0  0  0  0  0  0  0  0  0
    4.0576    0.6388    0.0000 C   0  0  0  0  0  0  0  0  0  0  0  0
    5.3667   -0.3122    0.0000 C   0  0  0  0  0  0  0  0  0  0  0  0
    2.7976   -0.6212    0.0000 C   0  0  0  0  0  0  0  0  0  0  0  0
    4.5576   -1.5200    0.0000 H   0  0  0  0  0  0  0  0  0  0  0  0
    5.9563   -0.5038    0.0000 H   0  0  0  0  0  0  0  0  0  0  0  0
    3.7220    2.0142    0.0000 H   0  0  0  0  0  0  0  0  0  0  0  0
    2.8532    1.3830    0.0000 H   0  0  0  0  0  0  0  0  0  0  0  0
    2.0000   -1.7910    0.0000 H   0  0  0  0  0  0  0  0  0  0  0  0
    3.0504   -2.0142    0.0000 H   0  0  0  0  0  0  0  0  0  0  0  0
  1  9  2  0  0  0  0
  2  6  1  0  0  0  0
  2  8  1  0  0  0  0
  2 10  1  0  0  0  0
  3  7  1  0  0  0  0
  3  8  2  0  0  0  0
  4  7  1  0  0  0  0
  4 12  1  0  0  0  0
  4 13  1  0  0  0  0
  5  9  1  0  0  0  0
  5 14  1  0  0  0  0
  5 15  1  0  0  0  0
  6  7  2  0  0  0  0
  6  9  1  0  0  0  0
  8 11  1  0  0  0  0
M  ISO  2   4  15   5  15
M  END
> <PUBCHEM_COMPOUND_CID>
10701851

> <PUBCHEM_COMPOUND_CANONICALIZED>
1

> <PUBCHEM_CACTVS_COMPLEXITY>
126

> <PUBCHEM_CACTVS_HBOND_ACCEPTOR>
3

> <PUBCHEM_CACTVS_HBOND_DONOR>
3

> <PUBCHEM_CACTVS_ROTATABLE_BOND>
1

> <PUBCHEM_CACTVS_SUBSKEYS>
AAADcYBjoAAAAAAAAAAAAAAAAAAAAWAAAAAAAAAAAAAAAAABgAAAHgAQAAAACAgBlgQFsBbJkACoAQdxdACAgC2XEKABUYGoVECASAhASCAUAIAIAAJAAGAAAAAAAAAAAAAAAAAAAAAAAAAAAAAAAAAAAA==

> <PUBCHEM_IUPAC_OPENEYE_NAME>
4-(15N)azanyl-1H-imidazole-5-(15N)carboxamide

> <PUBCHEM_IUPAC_CAS_NAME>
4-(15N)azanyl-1H-imidazole-5-(15N)carboxamide

> <PUBCHEM_IUPAC_NAME_MARKUP>
4-(<SUP>15</SUP>N)azanyl-1<I>H</I>-imidazole-5-(<SUP>15</SUP>N)carboxamide

> <PUBCHEM_IUPAC_NAME>
4-(15N)azanyl-1H-imidazole-5-(15N)carboxamide

> <PUBCHEM_IUPAC_SYSTEMATIC_NAME>
4-(15N)azanyl-1H-imidazole-5-(15N)carboxamide

> <PUBCHEM_IUPAC_TRADITIONAL_NAME>
4-(15N)azanyl-1H-imidazole-5-(15N)carboxamide

> <PUBCHEM_IUPAC_INCHI>
InChI=1S/C4H6N4O/c5-3-2(4(6)9)7-1-8-3/h1H,5H2,(H2,6,9)(H,7,8)/i5+1,6+1

> <PUBCHEM_IUPAC_INCHIKEY>
DVNYTAVYBRSTGK-MPOCSFTDSA-N

> <PUBCHEM_XLOGP3_AA>
-0.5

> <PUBCHEM_EXACT_MASS>
128.04823062

> <PUBCHEM_MOLECULAR_FORMULA>
C4H6N4O

> <PUBCHEM_MOLECULAR_WEIGHT>
128.10

> <PUBCHEM_OPENEYE_CAN_SMILES>
C1=NC(=C(N1)C(=O)N)N

> <PUBCHEM_OPENEYE_ISO_SMILES>
C1=NC(=C(N1)C(=O)[15NH2])[15NH2]

> <PUBCHEM_CACTVS_TPSA>
97.8

> <PUBCHEM_MONOISOTOPIC_WEIGHT>
128.04823062

> <PUBCHEM_TOTAL_CHARGE>
0

> <PUBCHEM_HEAVY_ATOM_COUNT>
9

> <PUBCHEM_ATOM_DEF_STEREO_COUNT>
0

> <PUBCHEM_ATOM_UDEF_STEREO_COUNT>
0

> <PUBCHEM_BOND_DEF_STEREO_COUNT>
0

> <PUBCHEM_BOND_UDEF_STEREO_COUNT>
0

> <PUBCHEM_ISOTOPIC_ATOM_COUNT>
2

> <PUBCHEM_COMPONENT_COUNT>
1

> <PUBCHEM_CACTVS_TAUTO_COUNT>
-1

> <PUBCHEM_COORDINATE_TYPE>
1
5
255

> <PUBCHEM_BONDANNOTATIONS>
2  6  8
2  8  8
3  7  8
3  8  8
6  7  8

$$$$
