129678271
  -OEChem-02292422592D

 18 19  0     0  0  0  0  0  0999 V2000
    4.2690    1.5000    0.0000 S   0  0  0  0  0  0  0  0  0  0  0  0
    4.2690   -2.5000    0.0000 O   0  0  0  0  0  0  0  0  0  0  0  0
    4.2690    0.5000    0.0000 N   0  0  0  0  0  0  0  0  0  0  0  0
    6.0812   -1.3047    0.0000 N   0  0  0  0  0  0  0  0  0  0  0  0
    6.0812    0.3047    0.0000 N   0  0  0  0  0  0  0  0  0  0  0  0
    3.4030   -1.0000    0.0000 N   0  0  0  0  0  0  0  0  0  0  0  0
    2.5369    0.5000    0.0000 N   0  0  0  0  0  0  0  0  0  0  0  0
    6.0010    2.5000    0.0000 N   0  0  0  0  0  0  0  0  0  0  0  0
    5.1350   -0.0000    0.0000 C   0  0  0  0  0  0  0  0  0  0  0  0
    5.1350   -1.0000    0.0000 C   0  0  0  0  0  0  0  0  0  0  0  0
    3.4030   -0.0000    0.0000 C   0  0  0  0  0  0  0  0  0  0  0  0
    4.2690   -1.5000    0.0000 C   0  0  0  0  0  0  0  0  0  0  0  0
    6.6648   -0.5000    0.0000 C   0  0  0  0  0  0  0  0  0  0  0  0
    5.1350    2.0000    0.0000 C   0  0  0  0  0  0  0  0  0  0  0  0
    6.2738   -1.8940    0.0000 H   0  0  0  0  0  0  0  0  0  0  0  0
    7.2848   -0.5000    0.0000 H   0  0  0  0  0  0  0  0  0  0  0  0
    2.0000    0.1900    0.0000 H   0  0  0  0  0  0  0  0  0  0  0  0
    2.5369    1.1200    0.0000 H   0  0  0  0  0  0  0  0  0  0  0  0
  1  3  1  0  0  0  0
  1 14  1  0  0  0  0
  2 12  2  0  0  0  0
  3  9  1  0  0  0  0
  3 11  1  0  0  0  0
  4 10  1  0  0  0  0
  4 13  1  0  0  0  0
  4 15  1  0  0  0  0
  5  9  1  0  0  0  0
  5 13  2  0  0  0  0
  6 11  2  0  0  0  0
  6 12  1  0  0  0  0
  7 11  1  0  0  0  0
  7 17  1  0  0  0  0
  7 18  1  0  0  0  0
  8 14  3  0  0  0  0
  9 10  2  0  0  0  0
 10 12  1  0  0  0  0
 13 16  1  0  0  0  0
M  END
> <PUBCHEM_COMPOUND_CID>
129678271

> <PUBCHEM_COMPOUND_CANONICALIZED>
1

> <PUBCHEM_CACTVS_COMPLEXITY>
346

> <PUBCHEM_CACTVS_HBOND_ACCEPTOR>
4

> <PUBCHEM_CACTVS_HBOND_DONOR>
2

> <PUBCHEM_CACTVS_ROTATABLE_BOND>
1

> <PUBCHEM_CACTVS_SUBSKEYS>
AAADcYBjoABAAAAAAAAAAAAAAAAAAWAAAAAgAAAAAAAAAEABgAAAHgQQQAAACAgBlgQFsBbJkAC4AQdxdACAgC2XEKABUYGoVECASAhASCAUAIAIAAJAAGAAAAAAAAAAAAAAAAAAAAAAAAAAAAAAAAAAAA==

> <PUBCHEM_IUPAC_OPENEYE_NAME>
(2-amino-6-oxo-7H-purin-3-yl) thiocyanate

> <PUBCHEM_IUPAC_CAS_NAME>
thiocyanic acid (2-amino-6-oxo-7H-purin-3-yl) ester

> <PUBCHEM_IUPAC_NAME_MARKUP>
(2-amino-6-oxo-7<I>H</I>-purin-3-yl) thiocyanate

> <PUBCHEM_IUPAC_NAME>
(2-amino-6-oxo-7H-purin-3-yl) thiocyanate

> <PUBCHEM_IUPAC_SYSTEMATIC_NAME>
(2-azanyl-6-oxidanylidene-7H-purin-3-yl) thiocyanate

> <PUBCHEM_IUPAC_TRADITIONAL_NAME>
thiocyanic acid (2-amino-6-keto-7H-purin-3-yl) ester

> <PUBCHEM_IUPAC_INCHI>
InChI=1S/C6H4N6OS/c7-1-14-12-4-3(9-2-10-4)5(13)11-6(12)8/h2H,(H,9,10)(H2,8,11,13)

> <PUBCHEM_IUPAC_INCHIKEY>
SKRZURRSYDOEIX-UHFFFAOYSA-N

> <PUBCHEM_XLOGP3_AA>
-0.4

> <PUBCHEM_EXACT_MASS>
208.01672995

> <PUBCHEM_MOLECULAR_FORMULA>
C6H4N6OS

> <PUBCHEM_MOLECULAR_WEIGHT>
208.20

> <PUBCHEM_OPENEYE_CAN_SMILES>
C1=NC2=C(N1)C(=O)N=C(N2SC#N)N

> <PUBCHEM_OPENEYE_ISO_SMILES>
C1=NC2=C(N1)C(=O)N=C(N2SC#N)N

> <PUBCHEM_CACTVS_TPSA>
137

> <PUBCHEM_MONOISOTOPIC_WEIGHT>
208.01672995

> <PUBCHEM_TOTAL_CHARGE>
0

> <PUBCHEM_HEAVY_ATOM_COUNT>
14

> <PUBCHEM_ATOM_DEF_STEREO_COUNT>
0

> <PUBCHEM_ATOM_UDEF_STEREO_COUNT>
0

> <PUBCHEM_BOND_DEF_STEREO_COUNT>
0

> <PUBCHEM_BOND_UDEF_STEREO_COUNT>
0

> <PUBCHEM_ISOTOPIC_ATOM_COUNT>
0

> <PUBCHEM_COMPONENT_COUNT>
1

> <PUBCHEM_CACTVS_TAUTO_COUNT>
-1

> <PUBCHEM_COORDINATE_TYPE>
1
5
255

> <PUBCHEM_BONDANNOTATIONS>
10  12  8
3  11  8
3  9  8
4  10  8
4  13  8
5  13  8
5  9  8
6  11  8
6  12  8
9  10  8

$$$$
