135457123
  -OEChem-02292422592D

 16 16  0     0  0  0  0  0  0999 V2000
    2.0544    0.0479    0.0000 O   0  0  0  0  0  0  0  0  0  0  0  0
    4.5576   -0.9000    0.0000 N   0  0  0  0  0  0  0  0  0  0  0  0
    5.0576    0.6388    0.0000 N   0  3  0  0  0  0  0  0  0  0  0  0
    3.4699    1.4478    0.0000 N   0  0  0  0  0  0  0  0  0  0  0  0
    2.5896   -1.5994    0.0000 N   0  0  0  0  0  0  0  0  0  0  0  0
    3.7486   -0.3122    0.0000 C   0  0  0  0  0  0  0  0  0  0  0  0
    4.0576    0.6388    0.0000 C   0  0  0  0  0  0  0  0  0  0  0  0
    5.3667   -0.3122    0.0000 C   0  0  0  0  0  0  0  0  0  0  0  0
    2.7976   -0.6212    0.0000 C   0  0  0  0  0  0  0  0  0  0  0  0
    4.5576   -1.5200    0.0000 H   0  0  0  0  0  0  0  0  0  0  0  0
    5.4221    1.1404    0.0000 H   0  0  0  0  0  0  0  0  0  0  0  0
    5.9563   -0.5038    0.0000 H   0  0  0  0  0  0  0  0  0  0  0  0
    3.7220    2.0142    0.0000 H   0  0  0  0  0  0  0  0  0  0  0  0
    2.8532    1.3830    0.0000 H   0  0  0  0  0  0  0  0  0  0  0  0
    2.0000   -1.7910    0.0000 H   0  0  0  0  0  0  0  0  0  0  0  0
    3.0504   -2.0142    0.0000 H   0  0  0  0  0  0  0  0  0  0  0  0
  1  9  2  0  0  0  0
  2  6  1  0  0  0  0
  2  8  1  0  0  0  0
  2 10  1  0  0  0  0
  3  7  1  0  0  0  0
  3  8  2  0  0  0  0
  3 11  1  0  0  0  0
  4  7  1  0  0  0  0
  4 13  1  0  0  0  0
  4 14  1  0  0  0  0
  5  9  1  0  0  0  0
  5 15  1  0  0  0  0
  5 16  1  0  0  0  0
  6  7  2  0  0  0  0
  6  9  1  0  0  0  0
  8 12  1  0  0  0  0
M  CHG  1   3   1
M  END
> <PUBCHEM_COMPOUND_CID>
135457123

> <PUBCHEM_COMPOUND_CANONICALIZED>
1

> <PUBCHEM_CACTVS_COMPLEXITY>
126

> <PUBCHEM_CACTVS_HBOND_ACCEPTOR>
2

> <PUBCHEM_CACTVS_HBOND_DONOR>
4

> <PUBCHEM_CACTVS_ROTATABLE_BOND>
1

> <PUBCHEM_CACTVS_SUBSKEYS>
AAADcYBjoAAAAAAAAAAAAAAAAAAAAWAAAAAAAAAAAAAAAAABgAAAHgAQAAAACAgBlgQFsBbJkACoAQdxdACAgC2XEKABUYGoVECASAhASCAUAIAIAAJAAGAAAAAAAAAAAAAAAAAAAAAAAAAAAAAAAAAAAA==

> <PUBCHEM_IUPAC_OPENEYE_NAME>
4-amino-1H-imidazol-3-ium-5-carboxamide

> <PUBCHEM_IUPAC_CAS_NAME>
4-amino-1H-imidazol-3-ium-5-carboxamide

> <PUBCHEM_IUPAC_NAME_MARKUP>
4-amino-1<I>H</I>-imidazol-3-ium-5-carboxamide

> <PUBCHEM_IUPAC_NAME>
4-amino-1H-imidazol-3-ium-5-carboxamide

> <PUBCHEM_IUPAC_SYSTEMATIC_NAME>
4-azanyl-1H-imidazol-3-ium-5-carboxamide

> <PUBCHEM_IUPAC_TRADITIONAL_NAME>
4-amino-1H-imidazol-3-ium-5-carboxamide

> <PUBCHEM_IUPAC_INCHI>
InChI=1S/C4H6N4O/c5-3-2(4(6)9)7-1-8-3/h1H,5H2,(H2,6,9)(H,7,8)/p+1

> <PUBCHEM_IUPAC_INCHIKEY>
DVNYTAVYBRSTGK-UHFFFAOYSA-O

> <PUBCHEM_XLOGP3_AA>
-0.3

> <PUBCHEM_EXACT_MASS>
127.06198586

> <PUBCHEM_MOLECULAR_FORMULA>
C4H7N4O+

> <PUBCHEM_MOLECULAR_WEIGHT>
127.13

> <PUBCHEM_OPENEYE_CAN_SMILES>
C1=[NH+]C(=C(N1)C(=O)N)N

> <PUBCHEM_OPENEYE_ISO_SMILES>
C1=[NH+]C(=C(N1)C(=O)N)N

> <PUBCHEM_CACTVS_TPSA>
99

> <PUBCHEM_MONOISOTOPIC_WEIGHT>
127.06198586

> <PUBCHEM_TOTAL_CHARGE>
1

> <PUBCHEM_HEAVY_ATOM_COUNT>
9

> <PUBCHEM_ATOM_DEF_STEREO_COUNT>
0

> <PUBCHEM_ATOM_UDEF_STEREO_COUNT>
0

> <PUBCHEM_BOND_DEF_STEREO_COUNT>
0

> <PUBCHEM_BOND_UDEF_STEREO_COUNT>
0

> <PUBCHEM_ISOTOPIC_ATOM_COUNT>
0

> <PUBCHEM_COMPONENT_COUNT>
1

> <PUBCHEM_CACTVS_TAUTO_COUNT>
-1

> <PUBCHEM_COORDINATE_TYPE>
1
5
255

> <PUBCHEM_BONDANNOTATIONS>
2  6  8
2  8  8
3  7  8
3  8  8
6  7  8

$$$$
