136438278
  -OEChem-02292422592D

 20 21  0     0  0  0  0  0  0999 V2000
    5.1350    2.5600    0.0000 O   0  0  0  0  0  0  0  0  0  0  0  0
    4.2690   -1.9400    0.0000 O   0  0  0  0  0  0  0  0  0  0  0  0
    4.2690    1.0600    0.0000 N   0  0  0  0  0  0  0  0  0  0  0  0
    6.9473    1.3647    0.0000 N   0  0  0  0  0  0  0  0  0  0  0  0
    5.1350   -0.4400    0.0000 N   0  0  0  0  0  0  0  0  0  0  0  0
    6.9473   -0.2447    0.0000 N   0  0  0  0  0  0  0  0  0  0  0  0
    3.4030   -0.4400    0.0000 N   0  0  0  0  0  0  0  0  0  0  0  0
    2.5369   -1.9400    0.0000 N   0  0  0  0  0  0  0  0  0  0  0  0
    6.0010    1.0600    0.0000 C   0  0  0  0  0  0  0  0  0  0  0  0
    6.0010    0.0600    0.0000 C   0  0  0  0  0  0  0  0  0  0  0  0
    5.1350    1.5600    0.0000 C   0  0  0  0  0  0  0  0  0  0  0  0
    4.2690    0.0600    0.0000 C   0  0  0  0  0  0  0  0  0  0  0  0
    7.5309    0.5600    0.0000 C   0  0  0  0  0  0  0  0  0  0  0  0
    3.4030   -1.4400    0.0000 C   0  0  0  0  0  0  0  0  0  0  0  0
    3.7320    1.3700    0.0000 H   0  0  0  0  0  0  0  0  0  0  0  0
    7.1399    1.9540    0.0000 H   0  0  0  0  0  0  0  0  0  0  0  0
    8.1509    0.5600    0.0000 H   0  0  0  0  0  0  0  0  0  0  0  0
    2.8660   -0.1300    0.0000 H   0  0  0  0  0  0  0  0  0  0  0  0
    2.5369   -2.5600    0.0000 H   0  0  0  0  0  0  0  0  0  0  0  0
    2.0000   -1.6300    0.0000 H   0  0  0  0  0  0  0  0  0  0  0  0
  1 11  2  0  0  0  0
  2 14  2  0  0  0  0
  3 11  1  0  0  0  0
  3 12  1  0  0  0  0
  3 15  1  0  0  0  0
  4  9  1  0  0  0  0
  4 13  1  0  0  0  0
  4 16  1  0  0  0  0
  5 10  1  0  0  0  0
  5 12  2  0  0  0  0
  6 10  1  0  0  0  0
  6 13  2  0  0  0  0
  7 12  1  0  0  0  0
  7 14  1  0  0  0  0
  7 18  1  0  0  0  0
  8 14  1  0  0  0  0
  8 19  1  0  0  0  0
  8 20  1  0  0  0  0
  9 10  2  0  0  0  0
  9 11  1  0  0  0  0
 13 17  1  0  0  0  0
M  END
> <PUBCHEM_COMPOUND_CID>
136438278

> <PUBCHEM_COMPOUND_CANONICALIZED>
1

> <PUBCHEM_CACTVS_COMPLEXITY>
313

> <PUBCHEM_CACTVS_HBOND_ACCEPTOR>
4

> <PUBCHEM_CACTVS_HBOND_DONOR>
4

> <PUBCHEM_CACTVS_ROTATABLE_BOND>
1

> <PUBCHEM_CACTVS_SUBSKEYS>
AAADcYBjsAAAAAAAAAAAAAAAAAAAAWAAAAAgAAAAAAAAAEABgAAAHgAQAAAACAgBlgQFsBbJkACoAQdxdACAgC2XEKABUYGoVECASAhASCAUAIgIAQJAAGAAAAAAAAAAAAAAAAAAAAAAAAAAAAAAAAAAAA==

> <PUBCHEM_IUPAC_OPENEYE_NAME>
(6-oxo-1,7-dihydropurin-2-yl)urea

> <PUBCHEM_IUPAC_CAS_NAME>
(6-oxo-1,7-dihydropurin-2-yl)urea

> <PUBCHEM_IUPAC_NAME_MARKUP>
(6-oxo-1,7-dihydropurin-2-yl)urea

> <PUBCHEM_IUPAC_NAME>
(6-oxo-1,7-dihydropurin-2-yl)urea

> <PUBCHEM_IUPAC_SYSTEMATIC_NAME>
1-(6-oxidanylidene-1,7-dihydropurin-2-yl)urea

> <PUBCHEM_IUPAC_TRADITIONAL_NAME>
(6-keto-1,7-dihydropurin-2-yl)urea

> <PUBCHEM_IUPAC_INCHI>
InChI=1S/C6H6N6O2/c7-5(14)12-6-10-3-2(4(13)11-6)8-1-9-3/h1H,(H5,7,8,9,10,11,12,13,14)

> <PUBCHEM_IUPAC_INCHIKEY>
MKGBVDDNOLVUGJ-UHFFFAOYSA-N

> <PUBCHEM_XLOGP3_AA>
-1.5

> <PUBCHEM_EXACT_MASS>
194.05522346

> <PUBCHEM_MOLECULAR_FORMULA>
C6H6N6O2

> <PUBCHEM_MOLECULAR_WEIGHT>
194.15

> <PUBCHEM_OPENEYE_CAN_SMILES>
C1=NC2=C(N1)C(=O)NC(=N2)NC(=O)N

> <PUBCHEM_OPENEYE_ISO_SMILES>
C1=NC2=C(N1)C(=O)NC(=N2)NC(=O)N

> <PUBCHEM_CACTVS_TPSA>
125

> <PUBCHEM_MONOISOTOPIC_WEIGHT>
194.05522346

> <PUBCHEM_TOTAL_CHARGE>
0

> <PUBCHEM_HEAVY_ATOM_COUNT>
14

> <PUBCHEM_ATOM_DEF_STEREO_COUNT>
0

> <PUBCHEM_ATOM_UDEF_STEREO_COUNT>
0

> <PUBCHEM_BOND_DEF_STEREO_COUNT>
0

> <PUBCHEM_BOND_UDEF_STEREO_COUNT>
0

> <PUBCHEM_ISOTOPIC_ATOM_COUNT>
0

> <PUBCHEM_COMPONENT_COUNT>
1

> <PUBCHEM_CACTVS_TAUTO_COUNT>
-1

> <PUBCHEM_COORDINATE_TYPE>
1
5
255

> <PUBCHEM_BONDANNOTATIONS>
3  11  8
3  12  8
4  13  8
4  9  8
5  10  8
5  12  8
6  10  8
6  13  8
9  10  8
9  11  8

$$$$
