136768586
  -OEChem-02292422592D

 18 19  0     0  0  0  0  0  0999 V2000
    3.4030    1.6970    0.0000 O   0  0  0  0  0  0  0  0  0  0  0  0
    5.2152    0.5018    0.0000 N   0  3  0  0  0  0  0  0  0  0  0  0
    5.2152   -1.1077    0.0000 N   0  0  0  0  0  0  0  0  0  0  0  0
    2.5369    0.1970    0.0000 N   0  0  0  0  0  0  0  0  0  0  0  0
    3.4030   -1.3030    0.0000 N   0  0  0  0  0  0  0  0  0  0  0  0
    4.2690    0.1970    0.0000 C   0  0  0  0  0  0  0  0  0  0  0  0
    4.2690   -0.8030    0.0000 C   0  0  0  0  0  0  0  0  0  0  0  0
    5.7988   -0.3030    0.0000 C   0  0  0  0  0  0  0  0  0  0  0  0
    3.4030    0.6970    0.0000 C   0  0  0  0  0  0  0  0  0  0  0  0
    5.5259    1.4523    0.0000 C   0  0  0  0  0  0  0  0  0  0  0  0
    2.5369   -0.8030    0.0000 C   0  0  0  0  0  0  0  0  0  0  0  0
    6.4188   -0.3030    0.0000 H   0  0  0  0  0  0  0  0  0  0  0  0
    5.4078   -1.6970    0.0000 H   0  0  0  0  0  0  0  0  0  0  0  0
    6.1152    1.2597    0.0000 H   0  0  0  0  0  0  0  0  0  0  0  0
    5.7185    2.0416    0.0000 H   0  0  0  0  0  0  0  0  0  0  0  0
    4.9366    1.6449    0.0000 H   0  0  0  0  0  0  0  0  0  0  0  0
    2.0000    0.5070    0.0000 H   0  0  0  0  0  0  0  0  0  0  0  0
    2.0000   -1.1130    0.0000 H   0  0  0  0  0  0  0  0  0  0  0  0
  1  9  2  0  0  0  0
  2  6  1  0  0  0  0
  2  8  2  0  0  0  0
  2 10  1  0  0  0  0
  3  7  1  0  0  0  0
  3  8  1  0  0  0  0
  3 13  1  0  0  0  0
  4  9  1  0  0  0  0
  4 11  1  0  0  0  0
  4 17  1  0  0  0  0
  5  7  1  0  0  0  0
  5 11  2  0  0  0  0
  6  7  2  0  0  0  0
  6  9  1  0  0  0  0
  8 12  1  0  0  0  0
 10 14  1  0  0  0  0
 10 15  1  0  0  0  0
 10 16  1  0  0  0  0
 11 18  1  0  0  0  0
M  CHG  1   2   1
M  END
> <PUBCHEM_COMPOUND_CID>
136768586

> <PUBCHEM_COMPOUND_CANONICALIZED>
1

> <PUBCHEM_CACTVS_COMPLEXITY>
215

> <PUBCHEM_CACTVS_HBOND_ACCEPTOR>
2

> <PUBCHEM_CACTVS_HBOND_DONOR>
2

> <PUBCHEM_CACTVS_ROTATABLE_BOND>
0

> <PUBCHEM_CACTVS_SUBSKEYS>
AAADcYBjoAAAAAAAAAAAAAAAAAAAAWAAAAAgAAAAAAAAAEABgAAAHgAQAAAACAgBlgQHsBfNkACoAQdxdACAgC2XEKABUYGoVECASAhASCAUAIgIAgJAAGAAAAAAAAAAAAAAAAAAAAAAAAAAAAAAAAAAAA==

> <PUBCHEM_IUPAC_OPENEYE_NAME>
7-methyl-1,9-dihydropurin-7-ium-6-one

> <PUBCHEM_IUPAC_CAS_NAME>
7-methyl-1,9-dihydropurin-7-ium-6-one

> <PUBCHEM_IUPAC_NAME_MARKUP>
7-methyl-1,9-dihydropurin-7-ium-6-one

> <PUBCHEM_IUPAC_NAME>
7-methyl-1,9-dihydropurin-7-ium-6-one

> <PUBCHEM_IUPAC_SYSTEMATIC_NAME>
7-methyl-1,9-dihydropurin-7-ium-6-one

> <PUBCHEM_IUPAC_TRADITIONAL_NAME>
7-methyl-1,9-dihydropurin-7-ium-6-one

> <PUBCHEM_IUPAC_INCHI>
InChI=1S/C6H6N4O/c1-10-3-9-5-4(10)6(11)8-2-7-5/h2-3H,1H3,(H,7,8,11)/p+1

> <PUBCHEM_IUPAC_INCHIKEY>
CBQMKYHLDADRLN-UHFFFAOYSA-O

> <PUBCHEM_XLOGP3_AA>
-0.4

> <PUBCHEM_EXACT_MASS>
151.06198586

> <PUBCHEM_MOLECULAR_FORMULA>
C6H7N4O+

> <PUBCHEM_MOLECULAR_WEIGHT>
151.15

> <PUBCHEM_OPENEYE_CAN_SMILES>
C[N+]1=CNC2=C1C(=O)NC=N2

> <PUBCHEM_OPENEYE_ISO_SMILES>
C[N+]1=CNC2=C1C(=O)NC=N2

> <PUBCHEM_CACTVS_TPSA>
61.1

> <PUBCHEM_MONOISOTOPIC_WEIGHT>
151.06198586

> <PUBCHEM_TOTAL_CHARGE>
1

> <PUBCHEM_HEAVY_ATOM_COUNT>
11

> <PUBCHEM_ATOM_DEF_STEREO_COUNT>
0

> <PUBCHEM_ATOM_UDEF_STEREO_COUNT>
0

> <PUBCHEM_BOND_DEF_STEREO_COUNT>
0

> <PUBCHEM_BOND_UDEF_STEREO_COUNT>
0

> <PUBCHEM_ISOTOPIC_ATOM_COUNT>
0

> <PUBCHEM_COMPONENT_COUNT>
1

> <PUBCHEM_CACTVS_TAUTO_COUNT>
-1

> <PUBCHEM_COORDINATE_TYPE>
1
5
255

> <PUBCHEM_BONDANNOTATIONS>
2  6  8
2  8  8
3  7  8
3  8  8
4  11  8
4  9  8
5  11  8
5  7  8
6  7  8
6  9  8

$$$$
