142733243
  -OEChem-02292422592D

 18 19  0     0  0  0  0  0  0999 V2000
    4.2690    1.4400    0.0000 S   0  0  0  0  0  0  0  0  0  0  0  0
    5.1350    1.9400    0.0000 S   0  0  0  0  0  0  0  0  0  0  0  0
    4.2690   -2.5600    0.0000 O   0  0  0  0  0  0  0  0  0  0  0  0
    4.2690    0.4400    0.0000 N   0  0  0  0  0  0  0  0  0  0  0  0
    6.0812   -1.3647    0.0000 N   0  0  0  0  0  0  0  0  0  0  0  0
    6.0812    0.2447    0.0000 N   0  0  0  0  0  0  0  0  0  0  0  0
    3.4030   -1.0600    0.0000 N   0  0  0  0  0  0  0  0  0  0  0  0
    2.5369    0.4400    0.0000 N   0  0  0  0  0  0  0  0  0  0  0  0
    5.1350   -0.0600    0.0000 C   0  0  0  0  0  0  0  0  0  0  0  0
    5.1350   -1.0600    0.0000 C   0  0  0  0  0  0  0  0  0  0  0  0
    3.4030   -0.0600    0.0000 C   0  0  0  0  0  0  0  0  0  0  0  0
    4.2690   -1.5600    0.0000 C   0  0  0  0  0  0  0  0  0  0  0  0
    6.6648   -0.5600    0.0000 C   0  0  0  0  0  0  0  0  0  0  0  0
    6.2738   -1.9540    0.0000 H   0  0  0  0  0  0  0  0  0  0  0  0
    7.2848   -0.5600    0.0000 H   0  0  0  0  0  0  0  0  0  0  0  0
    2.0000    0.1300    0.0000 H   0  0  0  0  0  0  0  0  0  0  0  0
    2.5369    1.0600    0.0000 H   0  0  0  0  0  0  0  0  0  0  0  0
    5.1350    2.5600    0.0000 H   0  0  0  0  0  0  0  0  0  0  0  0
  1  2  1  0  0  0  0
  1  4  1  0  0  0  0
  2 18  1  0  0  0  0
  3 12  2  0  0  0  0
  4  9  1  0  0  0  0
  4 11  1  0  0  0  0
  5 10  1  0  0  0  0
  5 13  1  0  0  0  0
  5 14  1  0  0  0  0
  6  9  1  0  0  0  0
  6 13  2  0  0  0  0
  7 11  2  0  0  0  0
  7 12  1  0  0  0  0
  8 11  1  0  0  0  0
  8 16  1  0  0  0  0
  8 17  1  0  0  0  0
  9 10  2  0  0  0  0
 10 12  1  0  0  0  0
 13 15  1  0  0  0  0
M  END
> <PUBCHEM_COMPOUND_CID>
142733243

> <PUBCHEM_COMPOUND_CANONICALIZED>
1

> <PUBCHEM_CACTVS_COMPLEXITY>
270

> <PUBCHEM_CACTVS_HBOND_ACCEPTOR>
4

> <PUBCHEM_CACTVS_HBOND_DONOR>
3

> <PUBCHEM_CACTVS_ROTATABLE_BOND>
1

> <PUBCHEM_CACTVS_SUBSKEYS>
AAADcYBjoABgAAAAAAAAAAAAAAAAAWAAAAAgAAAAAAAAAEABgAAAHgAQQAAACAgBlgQFsBbJkACoAQdxdACAgC2XEKABUYGoVECASAhASCAUAIAIAAJAAGAAAAAAAAAAAAAAAAAAAAAAAAAAAAAAAAAAAA==

> <PUBCHEM_IUPAC_OPENEYE_NAME>
2-amino-3-(disulfanyl)-7H-purin-6-one

> <PUBCHEM_IUPAC_CAS_NAME>
2-amino-3-(disulfanyl)-7H-purin-6-one

> <PUBCHEM_IUPAC_NAME_MARKUP>
2-amino-3-(disulfanyl)-7<I>H</I>-purin-6-one

> <PUBCHEM_IUPAC_NAME>
2-amino-3-(disulfanyl)-7H-purin-6-one

> <PUBCHEM_IUPAC_SYSTEMATIC_NAME>
2-azanyl-3-(disulfanyl)-7H-purin-6-one

> <PUBCHEM_IUPAC_TRADITIONAL_NAME>
2-amino-3-(disulfanyl)-7H-purin-6-one

> <PUBCHEM_IUPAC_INCHI>
InChI=1S/C5H5N5OS2/c6-5-9-4(11)2-3(8-1-7-2)10(5)13-12/h1,12H,(H,7,8)(H2,6,9,11)

> <PUBCHEM_IUPAC_INCHIKEY>
VQTPHRMKRLNIBH-UHFFFAOYSA-N

> <PUBCHEM_XLOGP3_AA>
0

> <PUBCHEM_EXACT_MASS>
214.99355215

> <PUBCHEM_MOLECULAR_FORMULA>
C5H5N5OS2

> <PUBCHEM_MOLECULAR_WEIGHT>
215.3

> <PUBCHEM_OPENEYE_CAN_SMILES>
C1=NC2=C(N1)C(=O)N=C(N2SS)N

> <PUBCHEM_OPENEYE_ISO_SMILES>
C1=NC2=C(N1)C(=O)N=C(N2SS)N

> <PUBCHEM_CACTVS_TPSA>
114

> <PUBCHEM_MONOISOTOPIC_WEIGHT>
214.99355215

> <PUBCHEM_TOTAL_CHARGE>
0

> <PUBCHEM_HEAVY_ATOM_COUNT>
13

> <PUBCHEM_ATOM_DEF_STEREO_COUNT>
0

> <PUBCHEM_ATOM_UDEF_STEREO_COUNT>
0

> <PUBCHEM_BOND_DEF_STEREO_COUNT>
0

> <PUBCHEM_BOND_UDEF_STEREO_COUNT>
0

> <PUBCHEM_ISOTOPIC_ATOM_COUNT>
0

> <PUBCHEM_COMPONENT_COUNT>
1

> <PUBCHEM_CACTVS_TAUTO_COUNT>
-1

> <PUBCHEM_COORDINATE_TYPE>
1
5
255

> <PUBCHEM_BONDANNOTATIONS>
10  12  8
4  11  8
4  9  8
5  10  8
5  13  8
6  13  8
6  9  8
7  11  8
7  12  8
9  10  8

$$$$
