154432351
  -OEChem-02292422592D

 21 22  0     0  0  0  0  0  0999 V2000
    5.1350    2.5600    0.0000 O   0  0  0  0  0  0  0  0  0  0  0  0
    6.9473    1.3647    0.0000 N   0  0  0  0  0  0  0  0  0  0  0  0
    4.2690    1.0600    0.0000 N   0  0  0  0  0  0  0  0  0  0  0  0
    5.1350   -0.4400    0.0000 N   0  0  0  0  0  0  0  0  0  0  0  0
    6.9473   -0.2447    0.0000 N   0  0  0  0  0  0  0  0  0  0  0  0
    3.4030   -0.4400    0.0000 N   0  0  0  0  0  0  0  0  0  0  0  0
    2.5369   -1.9400    0.0000 N   0  0  0  0  0  0  0  0  0  0  0  0
    4.2690   -1.9400    0.0000 N   0  0  0  0  0  0  0  0  0  0  0  0
    6.0010    1.0600    0.0000 C   0  0  0  0  0  0  0  0  0  0  0  0
    6.0010    0.0600    0.0000 C   0  0  0  0  0  0  0  0  0  0  0  0
    5.1350    1.5600    0.0000 C   0  0  0  0  0  0  0  0  0  0  0  0
    4.2690    0.0600    0.0000 C   0  0  0  0  0  0  0  0  0  0  0  0
    7.5309    0.5600    0.0000 C   0  0  0  0  0  0  0  0  0  0  0  0
    3.4030   -1.4400    0.0000 C   0  0  0  0  0  0  0  0  0  0  0  0
    7.1399    1.9540    0.0000 H   0  0  0  0  0  0  0  0  0  0  0  0
    3.7320    1.3700    0.0000 H   0  0  0  0  0  0  0  0  0  0  0  0
    8.1509    0.5600    0.0000 H   0  0  0  0  0  0  0  0  0  0  0  0
    2.5369   -2.5600    0.0000 H   0  0  0  0  0  0  0  0  0  0  0  0
    2.0000   -1.6300    0.0000 H   0  0  0  0  0  0  0  0  0  0  0  0
    4.2690   -2.5600    0.0000 H   0  0  0  0  0  0  0  0  0  0  0  0
    4.8059   -1.6300    0.0000 H   0  0  0  0  0  0  0  0  0  0  0  0
  1 11  2  0  0  0  0
  2  9  1  0  0  0  0
  2 13  1  0  0  0  0
  2 15  1  0  0  0  0
  3 11  1  0  0  0  0
  3 12  1  0  0  0  0
  3 16  1  0  0  0  0
  4 10  1  0  0  0  0
  4 12  2  0  0  0  0
  5 10  1  0  0  0  0
  5 13  2  0  0  0  0
  6 12  1  0  0  0  0
  6 14  2  0  0  0  0
  7 14  1  0  0  0  0
  7 18  1  0  0  0  0
  7 19  1  0  0  0  0
  8 14  1  0  0  0  0
  8 20  1  0  0  0  0
  8 21  1  0  0  0  0
  9 10  2  0  0  0  0
  9 11  1  0  0  0  0
 13 17  1  0  0  0  0
M  END
> <PUBCHEM_COMPOUND_CID>
154432351

> <PUBCHEM_COMPOUND_CANONICALIZED>
1

> <PUBCHEM_CACTVS_COMPLEXITY>
318

> <PUBCHEM_CACTVS_HBOND_ACCEPTOR>
3

> <PUBCHEM_CACTVS_HBOND_DONOR>
4

> <PUBCHEM_CACTVS_ROTATABLE_BOND>
1

> <PUBCHEM_CACTVS_SUBSKEYS>
AAADcYBjoAAAAAAAAAAAAAAAAAAAAWAAAAAgAAAAAAAAAEABgAAAHgAQAAAACAgBlgQFsBbJkACoAQdxdACAgC2XEKABUYGoVECASAhASCAUAIgIAQJAAGAAAAAAAAAAAAAAAAAAAAAAAAAAAAAAAAAAAA==

> <PUBCHEM_IUPAC_OPENEYE_NAME>
2-(6-oxo-1,7-dihydropurin-2-yl)guanidine

> <PUBCHEM_IUPAC_CAS_NAME>
2-(6-oxo-1,7-dihydropurin-2-yl)guanidine

> <PUBCHEM_IUPAC_NAME_MARKUP>
2-(6-oxo-1,7-dihydropurin-2-yl)guanidine

> <PUBCHEM_IUPAC_NAME>
2-(6-oxo-1,7-dihydropurin-2-yl)guanidine

> <PUBCHEM_IUPAC_SYSTEMATIC_NAME>
2-(6-oxidanylidene-1,7-dihydropurin-2-yl)guanidine

> <PUBCHEM_IUPAC_TRADITIONAL_NAME>
2-(6-keto-1,7-dihydropurin-2-yl)guanidine

> <PUBCHEM_IUPAC_INCHI>
InChI=1S/C6H7N7O/c7-5(8)13-6-11-3-2(4(14)12-6)9-1-10-3/h1H,(H6,7,8,9,10,11,12,13,14)

> <PUBCHEM_IUPAC_INCHIKEY>
OSDBTCRHLMWVSB-UHFFFAOYSA-N

> <PUBCHEM_XLOGP3_AA>
-1.6

> <PUBCHEM_EXACT_MASS>
193.07120787

> <PUBCHEM_MOLECULAR_FORMULA>
C6H7N7O

> <PUBCHEM_MOLECULAR_WEIGHT>
193.17

> <PUBCHEM_OPENEYE_CAN_SMILES>
C1=NC2=C(N1)C(=O)NC(=N2)N=C(N)N

> <PUBCHEM_OPENEYE_ISO_SMILES>
C1=NC2=C(N1)C(=O)NC(=N2)N=C(N)N

> <PUBCHEM_CACTVS_TPSA>
135

> <PUBCHEM_MONOISOTOPIC_WEIGHT>
193.07120787

> <PUBCHEM_TOTAL_CHARGE>
0

> <PUBCHEM_HEAVY_ATOM_COUNT>
14

> <PUBCHEM_ATOM_DEF_STEREO_COUNT>
0

> <PUBCHEM_ATOM_UDEF_STEREO_COUNT>
0

> <PUBCHEM_BOND_DEF_STEREO_COUNT>
0

> <PUBCHEM_BOND_UDEF_STEREO_COUNT>
0

> <PUBCHEM_ISOTOPIC_ATOM_COUNT>
0

> <PUBCHEM_COMPONENT_COUNT>
1

> <PUBCHEM_CACTVS_TAUTO_COUNT>
-1

> <PUBCHEM_COORDINATE_TYPE>
1
5
255

> <PUBCHEM_BONDANNOTATIONS>
2  13  8
2  9  8
3  11  8
3  12  8
4  10  8
4  12  8
5  10  8
5  13  8
9  10  8
9  11  8

$$$$
