87210822
  -OEChem-02292422592D

 15 15  0     0  0  0  0  0  0999 V2000
    3.1249   -1.8068    0.0000 O   0  0  0  0  0  0  0  0  0  0  0  0
    5.0929   -1.1074    0.0000 N   0  0  0  0  0  0  0  0  0  0  0  0
    5.5929    0.4314    0.0000 N   0  0  0  0  0  0  0  0  0  0  0  0
    4.0051    1.2404    0.0000 N   0  0  0  0  0  0  0  0  0  0  0  0
    2.5896   -0.1595    0.0000 N   0  0  0  0  0  0  0  0  0  0  0  0
    4.2839   -0.5197    0.0000 C   0  0  0  0  0  0  0  0  0  0  0  0
    4.5929    0.4314    0.0000 C   0  0  0  0  0  0  0  0  0  0  0  0
    5.9019   -0.5197    0.0000 C   0  0  0  0  0  0  0  0  0  0  0  0
    3.3328   -0.8287    0.0000 C   0  0  0  0  0  0  0  0  0  0  0  0
    5.0929   -1.7274    0.0000 H   0  0  0  0  0  0  0  0  0  0  0  0
    6.4916   -0.7112    0.0000 H   1  0  0  0  0  0  0  0  0  0  0  0
    4.2573    1.8068    0.0000 H   0  0  0  0  0  0  0  0  0  0  0  0
    3.3885    1.1756    0.0000 H   0  0  0  0  0  0  0  0  0  0  0  0
    2.0000   -0.3511    0.0000 H   0  0  0  0  0  0  0  0  0  0  0  0
    2.7186    0.4469    0.0000 H   0  0  0  0  0  0  0  0  0  0  0  0
  1  9  2  0  0  0  0
  2  6  1  0  0  0  0
  2  8  1  0  0  0  0
  2 10  1  0  0  0  0
  3  7  1  0  0  0  0
  3  8  2  0  0  0  0
  4  7  1  0  0  0  0
  4 12  1  0  0  0  0
  4 13  1  0  0  0  0
  5  9  1  0  0  0  0
  5 14  1  0  0  0  0
  5 15  1  0  0  0  0
  6  7  2  0  0  0  0
  6  9  1  0  0  0  0
  8 11  1  0  0  0  0
M  ISO  1  11   2
M  END
> <PUBCHEM_COMPOUND_CID>
87210822

> <PUBCHEM_COMPOUND_CANONICALIZED>
1

> <PUBCHEM_CACTVS_COMPLEXITY>
126

> <PUBCHEM_CACTVS_HBOND_ACCEPTOR>
3

> <PUBCHEM_CACTVS_HBOND_DONOR>
3

> <PUBCHEM_CACTVS_ROTATABLE_BOND>
1

> <PUBCHEM_CACTVS_SUBSKEYS>
AAADcYBjoAAAAAAAAAAAAAAAAAAAAWAAAAAAAAAAAAAAAAABgAAAHgAQAAAACAgBlgQFsBbJkACoAQdxdACAgC2XEKABUYGoVECASAhASCAUAIAIAAJAAGAAAAAAAAAAAAAAAAAAAAAAAAAAAAAAAAAAAA==

> <PUBCHEM_IUPAC_OPENEYE_NAME>
4-amino-2-deuterio-1H-imidazole-5-carboxamide

> <PUBCHEM_IUPAC_CAS_NAME>
4-amino-2-deuterio-1H-imidazole-5-carboxamide

> <PUBCHEM_IUPAC_NAME_MARKUP>
4-amino-2-deuterio-1<I>H</I>-imidazole-5-carboxamide

> <PUBCHEM_IUPAC_NAME>
4-amino-2-deuterio-1H-imidazole-5-carboxamide

> <PUBCHEM_IUPAC_SYSTEMATIC_NAME>
4-azanyl-2-deuterio-1H-imidazole-5-carboxamide

> <PUBCHEM_IUPAC_TRADITIONAL_NAME>
4-amino-2-deuterio-1H-imidazole-5-carboxamide

> <PUBCHEM_IUPAC_INCHI>
InChI=1S/C4H6N4O/c5-3-2(4(6)9)7-1-8-3/h1H,5H2,(H2,6,9)(H,7,8)/i1D

> <PUBCHEM_IUPAC_INCHIKEY>
DVNYTAVYBRSTGK-MICDWDOJSA-N

> <PUBCHEM_XLOGP3_AA>
-0.5

> <PUBCHEM_EXACT_MASS>
127.06043757

> <PUBCHEM_MOLECULAR_FORMULA>
C4H6N4O

> <PUBCHEM_MOLECULAR_WEIGHT>
127.12

> <PUBCHEM_OPENEYE_CAN_SMILES>
C1=NC(=C(N1)C(=O)N)N

> <PUBCHEM_OPENEYE_ISO_SMILES>
[2H]C1=NC(=C(N1)C(=O)N)N

> <PUBCHEM_CACTVS_TPSA>
97.8

> <PUBCHEM_MONOISOTOPIC_WEIGHT>
127.06043757

> <PUBCHEM_TOTAL_CHARGE>
0

> <PUBCHEM_HEAVY_ATOM_COUNT>
9

> <PUBCHEM_ATOM_DEF_STEREO_COUNT>
0

> <PUBCHEM_ATOM_UDEF_STEREO_COUNT>
0

> <PUBCHEM_BOND_DEF_STEREO_COUNT>
0

> <PUBCHEM_BOND_UDEF_STEREO_COUNT>
0

> <PUBCHEM_ISOTOPIC_ATOM_COUNT>
1

> <PUBCHEM_COMPONENT_COUNT>
1

> <PUBCHEM_CACTVS_TAUTO_COUNT>
-1

> <PUBCHEM_COORDINATE_TYPE>
1
5
255

> <PUBCHEM_BONDANNOTATIONS>
2  6  8
2  8  8
3  7  8
3  8  8
6  7  8

$$$$
